Version 4
SHEET 1 1200 400
WIRE 272 -64 256 -64
WIRE 368 -64 336 -64
WIRE 480 -64 464 -64
WIRE 576 -64 544 -64
WIRE 688 -64 672 -64
WIRE 784 -64 752 -64
WIRE 208 0 0 0
WIRE 256 0 256 -64
WIRE 256 0 208 0
WIRE 368 0 368 -64
WIRE 416 0 368 0
WIRE 464 0 464 -64
WIRE 464 0 416 0
WIRE 576 0 576 -64
WIRE 624 0 576 0
WIRE 672 0 672 -64
WIRE 672 0 624 0
WIRE 784 0 784 -64
WIRE 832 0 784 0
WIRE 896 0 832 0
WIRE 1040 0 960 0
WIRE 0 64 0 0
WIRE 208 64 208 0
WIRE 256 64 256 0
WIRE 272 64 256 64
WIRE 368 64 368 0
WIRE 368 64 352 64
WIRE 416 64 416 0
WIRE 464 64 464 0
WIRE 480 64 464 64
WIRE 576 64 576 0
WIRE 576 64 560 64
WIRE 624 64 624 0
WIRE 672 64 672 0
WIRE 688 64 672 64
WIRE 784 64 784 0
WIRE 784 64 768 64
WIRE 832 64 832 0
WIRE 1040 64 1040 0
WIRE 0 208 0 144
WIRE 208 208 208 144
WIRE 416 208 416 144
WIRE 624 208 624 144
WIRE 832 208 832 144
WIRE 1040 208 1040 144
FLAG 0 208 0
FLAG 208 208 0
FLAG 416 208 0
FLAG 624 208 0
FLAG 832 208 0
FLAG 1040 208 0
SYMBOL voltage 0 48 R0
WINDOW 123 40 48 Left 2
WINDOW 39 39 77 Left 2
SYMATTR Value2 AC 1 0
SYMATTR SpiceLine Rser=50.00
SYMATTR InstName V1
SYMATTR Value ""
SYMBOL ind 192 48 R0
SYMATTR InstName L1
SYMATTR Value 150.0n
SYMBOL cap 272 -48 R270
WINDOW 0 32 32 VTop 2
WINDOW 3 0 32 VBottom 2
SYMATTR InstName C2
SYMATTR Value 39.00p
SYMBOL ind 256 80 R270
WINDOW 0 32 56 VTop 2
WINDOW 3 5 56 VBottom 2
SYMATTR InstName L2
SYMATTR Value 390.0n
SYMBOL ind 400 48 R0
SYMATTR InstName L3
SYMATTR Value 100.0n
SYMBOL cap 480 -48 R270
WINDOW 0 32 32 VTop 2
WINDOW 3 0 32 VBottom 2
SYMATTR InstName C4
SYMATTR Value 56.00p
SYMBOL ind 464 80 R270
WINDOW 0 32 56 VTop 2
WINDOW 3 5 56 VBottom 2
SYMATTR InstName L4
SYMATTR Value 120.0n
SYMBOL ind 608 48 R0
SYMATTR InstName L5
SYMATTR Value 120.0n
SYMBOL cap 688 -48 R270
WINDOW 0 32 32 VTop 2
WINDOW 3 0 32 VBottom 2
SYMATTR InstName C6
SYMATTR Value 47.00p
SYMBOL ind 672 80 R270
WINDOW 0 32 56 VTop 2
WINDOW 3 5 56 VBottom 2
SYMATTR InstName L6
SYMATTR Value 180.0n
SYMBOL ind 816 48 R0
SYMATTR InstName L7
SYMATTR Value 100.0n
SYMBOL cap 896 16 R270
WINDOW 0 32 32 VTop 2
WINDOW 3 0 32 VBottom 2
SYMATTR InstName C8
SYMATTR Value 43.00p
SYMBOL res 1024 48 R0
SYMATTR InstName RL
SYMATTR Value 50
TEXT 16 -288 Left 2 !.ac dec 1001 11.04Meg 172.5Meg
TEXT 16 -240 Left 2 !.net I(RL) V1
TEXT 480 -288 Left 2 ;8th Order Elliptic Highpass\nShunt First\nCutoff Frequency = 69 MHz\nPassband Ripple = 0.10 dB; Stopband Attenuation = 50.00 dB
