Version 4
SHEET 1 1304 400
WIRE 64 0 0 0
WIRE 208 0 128 0
WIRE 272 0 208 0
WIRE 416 0 336 0
WIRE 480 0 416 0
WIRE 624 0 544 0
WIRE 688 0 624 0
WIRE 832 0 752 0
WIRE 896 0 832 0
WIRE 1040 0 960 0
WIRE 1248 0 1040 0
WIRE 0 64 0 0
WIRE 208 64 208 0
WIRE 416 64 416 0
WIRE 624 64 624 0
WIRE 832 64 832 0
WIRE 1040 64 1040 0
WIRE 1248 64 1248 0
WIRE 0 208 0 144
WIRE 208 208 208 144
WIRE 416 208 416 144
WIRE 624 208 624 144
WIRE 832 208 832 144
WIRE 1040 208 1040 144
WIRE 1248 208 1248 144
FLAG 0 208 0
FLAG 208 208 0
FLAG 416 208 0
FLAG 624 208 0
FLAG 832 208 0
FLAG 1040 208 0
FLAG 1248 208 0
SYMBOL voltage 0 48 R0
WINDOW 123 40 48 Left 2
WINDOW 39 39 77 Left 2
SYMATTR Value2 AC 1 0
SYMATTR SpiceLine Rser=50.00
SYMATTR InstName V1
SYMATTR Value ""
SYMBOL cap 64 16 R270
WINDOW 0 32 32 VTop 2
WINDOW 3 0 32 VBottom 2
SYMATTR InstName C1
SYMATTR Value 43.00p
SYMBOL ind 192 48 R0
SYMATTR InstName L2
SYMATTR Value 75.00n
SYMBOL cap 272 16 R270
WINDOW 0 32 32 VTop 2
WINDOW 3 0 32 VBottom 2
SYMATTR InstName C3
SYMATTR Value 24.00p
SYMBOL ind 400 48 R0
SYMATTR InstName L4
SYMATTR Value 62.00n
SYMBOL cap 480 16 R270
WINDOW 0 32 32 VTop 2
WINDOW 3 0 32 VBottom 2
SYMATTR InstName C5
SYMATTR Value 24.00p
SYMBOL ind 608 48 R0
SYMATTR InstName L6
SYMATTR Value 62.00n
SYMBOL cap 688 16 R270
WINDOW 0 32 32 VTop 2
WINDOW 3 0 32 VBottom 2
SYMATTR InstName C7
SYMATTR Value 24.00p
SYMBOL ind 816 48 R0
SYMATTR InstName L8
SYMATTR Value 56.00n
SYMBOL cap 896 16 R270
WINDOW 0 32 32 VTop 2
WINDOW 3 0 32 VBottom 2
SYMATTR InstName C9
SYMATTR Value 30.00p
SYMBOL ind 1024 48 R0
SYMATTR InstName L10
SYMATTR Value 100.0n
SYMBOL res 1232 48 R0
SYMATTR InstName RL
SYMATTR Value 50
TEXT 16 -288 Left 2 !.ac dec 1001 11.04Meg 172.5Meg
TEXT 16 -240 Left 2 !.net I(RL) V1
TEXT 480 -288 Left 2 ;10th Order Chebyshev Highpass\nSeries First\nCutoff Frequency = 69 MHz\nPassband Ripple = 0.10 dB
